
     RDKit          3D

 24 27  0  0  0  0  0  0  0  0999 V2000
  -40.9621   59.9788   -7.8960 O   0  0  0  0  0  0  0  0  0  0  0  0
  -42.1642   59.5948   -8.0869 C   0  0  0  0  0  0  0  0  0  0  0  0
  -42.0465   58.2731   -8.4731 O   0  0  0  0  0  0  0  0  0  0  0  0
  -43.3611   60.4102   -7.9203 C   0  0  0  0  0  0  0  0  0  0  0  0
  -44.5410   59.7166   -8.0937 C   0  0  0  0  0  0  0  0  0  0  0  0
  -45.7103   60.3670   -7.9639 N   0  0  0  0  0  0  0  0  0  0  0  0
  -47.0074   59.7524   -8.1211 C   0  0  0  0  0  0  0  0  0  0  0  0
  -47.5482   58.8818   -7.0133 C   0  0  0  0  0  0  0  0  0  0  0  0
  -46.9975   58.2458   -8.2307 C   0  0  0  0  0  0  0  0  0  0  0  0
  -45.7363   61.6888   -7.6662 C   0  0  0  0  0  0  0  0  0  0  0  0
  -46.9114   62.3853   -7.5260 C   0  0  0  0  0  0  0  0  0  0  0  0
  -46.9431   63.7264   -7.2241 C   0  0  0  0  0  0  0  0  0  0  0  0
  -48.1523   64.4653   -7.0749 N   0  0  0  0  0  0  0  0  0  0  0  0
  -48.3417   65.7891   -7.6090 C   0  0  0  0  0  0  0  0  0  0  0  0
  -49.6510   65.8043   -8.3348 C   0  0  0  0  0  0  0  0  0  0  0  0
  -50.7667   65.3475   -7.5969 N   0  0  0  0  0  0  0  0  0  0  0  0
  -50.5684   64.4440   -6.5275 C   0  0  0  0  0  0  0  0  0  0  0  0
  -49.2274   63.8597   -6.3596 C   0  0  0  0  0  0  0  0  0  0  0  0
  -45.7497   64.4012   -7.0548 C   0  0  0  0  0  0  0  0  0  0  0  0
  -45.7013   65.7193   -6.7568 F   0  0  0  0  0  0  0  0  0  0  0  0
  -44.5455   63.7432   -7.1858 C   0  0  0  0  0  0  0  0  0  0  0  0
  -44.5676   62.3800   -7.4935 C   0  0  0  0  0  0  0  0  0  0  0  0
  -43.3378   61.7546   -7.6169 C   0  0  0  0  0  0  0  0  0  0  0  0
  -42.2136   62.3192   -7.4733 O   0  0  0  0  0  0  0  0  0  0  0  0
  1  2  2  0
  2  3  1  0
  2  4  1  0
  4  5  2  0
  5  6  1  0
  6  7  1  0
  7  8  1  0
  8  9  1  0
  6 10  1  0
 10 11  2  0
 11 12  1  0
 12 13  1  0
 13 14  1  0
 14 15  1  0
 15 16  1  0
 16 17  1  0
 17 18  1  0
 12 19  2  0
 19 20  1  0
 19 21  1  0
 21 22  2  0
 22 23  1  0
 23 24  2  0
 23  4  1  0
  9  7  1  0
 22 10  1  0
 18 13  1  0
M  END
$$$$
