
     RDKit          3D

 24 27  0  0  0  0  0  0  0  0999 V2000
  -32.9401   78.8157   -9.8776 O   0  0  0  0  0  0  0  0  0  0  0  0
  -33.0790   78.1770   -8.7814 C   0  0  0  0  0  0  0  0  0  0  0  0
  -31.7949   78.0647   -8.2830 O   0  0  0  0  0  0  0  0  0  0  0  0
  -34.3367   77.6951   -8.2236 C   0  0  0  0  0  0  0  0  0  0  0  0
  -34.4207   76.3210   -8.1340 C   0  0  0  0  0  0  0  0  0  0  0  0
  -35.5366   75.7625   -7.6340 N   0  0  0  0  0  0  0  0  0  0  0  0
  -35.7430   74.3407   -7.4900 C   0  0  0  0  0  0  0  0  0  0  0  0
  -35.4210   73.6802   -6.1718 C   0  0  0  0  0  0  0  0  0  0  0  0
  -34.4864   73.5223   -7.3081 C   0  0  0  0  0  0  0  0  0  0  0  0
  -36.5705   76.5350   -7.2210 C   0  0  0  0  0  0  0  0  0  0  0  0
  -37.7250   75.9995   -6.7053 C   0  0  0  0  0  0  0  0  0  0  0  0
  -38.7769   76.7790   -6.2849 C   0  0  0  0  0  0  0  0  0  0  0  0
  -39.9819   76.2412   -5.7475 N   0  0  0  0  0  0  0  0  0  0  0  0
  -40.4529   76.5293   -4.4175 C   0  0  0  0  0  0  0  0  0  0  0  0
  -41.8985   76.9051   -4.5177 C   0  0  0  0  0  0  0  0  0  0  0  0
  -42.7251   75.9862   -5.2035 N   0  0  0  0  0  0  0  0  0  0  0  0
  -42.1546   75.1295   -6.1730 C   0  0  0  0  0  0  0  0  0  0  0  0
  -40.7584   75.3740   -6.5715 C   0  0  0  0  0  0  0  0  0  0  0  0
  -38.6712   78.1528   -6.3838 C   0  0  0  0  0  0  0  0  0  0  0  0
  -39.6632   78.9835   -5.9910 F   0  0  0  0  0  0  0  0  0  0  0  0
  -37.5312   78.7351   -6.8951 C   0  0  0  0  0  0  0  0  0  0  0  0
  -36.4905   77.8986   -7.3085 C   0  0  0  0  0  0  0  0  0  0  0  0
  -35.3621   78.5213   -7.8164 C   0  0  0  0  0  0  0  0  0  0  0  0
  -35.2079   79.7728   -7.9313 O   0  0  0  0  0  0  0  0  0  0  0  0
  1  2  2  0
  2  3  1  0
  2  4  1  0
  4  5  2  0
  5  6  1  0
  6  7  1  0
  7  8  1  0
  8  9  1  0
  6 10  1  0
 10 11  2  0
 11 12  1  0
 12 13  1  0
 13 14  1  0
 14 15  1  0
 15 16  1  0
 16 17  1  0
 17 18  1  0
 12 19  2  0
 19 20  1  0
 19 21  1  0
 21 22  2  0
 22 23  1  0
 23 24  2  0
 23  4  1  0
  9  7  1  0
 22 10  1  0
 18 13  1  0
M  END
$$$$
