
     RDKit          3D

 24 27  0  0  0  0  0  0  0  0999 V2000
  -41.6433   58.5977   -6.2542 O   0  0  0  0  0  0  0  0  0  0  0  0
  -41.9514   59.7917   -6.5835 C   0  0  0  0  0  0  0  0  0  0  0  0
  -40.8092   60.5258   -6.3257 O   0  0  0  0  0  0  0  0  0  0  0  0
  -43.2379   60.2308   -7.1100 C   0  0  0  0  0  0  0  0  0  0  0  0
  -43.3136   61.5878   -7.3467 C   0  0  0  0  0  0  0  0  0  0  0  0
  -44.4541   62.1069   -7.8335 N   0  0  0  0  0  0  0  0  0  0  0  0
  -44.6550   63.5075   -8.1216 C   0  0  0  0  0  0  0  0  0  0  0  0
  -44.1306   64.5402   -7.1540 C   0  0  0  0  0  0  0  0  0  0  0  0
  -45.5783   64.2345   -7.1724 C   0  0  0  0  0  0  0  0  0  0  0  0
  -45.5206   61.3116   -8.0910 C   0  0  0  0  0  0  0  0  0  0  0  0
  -46.7009   61.8068   -8.5883 C   0  0  0  0  0  0  0  0  0  0  0  0
  -47.7858   61.0040   -8.8512 C   0  0  0  0  0  0  0  0  0  0  0  0
  -49.0179   61.4999   -9.3671 N   0  0  0  0  0  0  0  0  0  0  0  0
  -49.1107   62.6589  -10.2166 C   0  0  0  0  0  0  0  0  0  0  0  0
  -49.9721   62.2982  -11.3867 C   0  0  0  0  0  0  0  0  0  0  0  0
  -51.2356   61.7483  -11.0719 N   0  0  0  0  0  0  0  0  0  0  0  0
  -51.4139   61.0812   -9.8380 C   0  0  0  0  0  0  0  0  0  0  0  0
  -50.2181   60.8108   -9.0226 C   0  0  0  0  0  0  0  0  0  0  0  0
  -47.6879   59.6479   -8.6067 C   0  0  0  0  0  0  0  0  0  0  0  0
  -48.7119   58.7962   -8.8403 F   0  0  0  0  0  0  0  0  0  0  0  0
  -46.5229   59.1060   -8.1076 C   0  0  0  0  0  0  0  0  0  0  0  0
  -45.4489   59.9649   -7.8573 C   0  0  0  0  0  0  0  0  0  0  0  0
  -44.2961   59.3826   -7.3563 C   0  0  0  0  0  0  0  0  0  0  0  0
  -44.1475   58.1490   -7.1127 O   0  0  0  0  0  0  0  0  0  0  0  0
  1  2  2  0
  2  3  1  0
  2  4  1  0
  4  5  2  0
  5  6  1  0
  6  7  1  0
  7  8  1  0
  8  9  1  0
  6 10  1  0
 10 11  2  0
 11 12  1  0
 12 13  1  0
 13 14  1  0
 14 15  1  0
 15 16  1  0
 16 17  1  0
 17 18  1  0
 12 19  2  0
 19 20  1  0
 19 21  1  0
 21 22  2  0
 22 23  1  0
 23 24  2  0
 23  4  1  0
  9  7  1  0
 22 10  1  0
 18 13  1  0
M  END
$$$$
