
     RDKit          3D

 24 27  0  0  0  0  0  0  0  0999 V2000
  -63.3538   73.9847    9.9811 O   0  0  0  0  0  0  0  0  0  0  0  0
  -63.4671   72.8955    9.3257 C   0  0  0  0  0  0  0  0  0  0  0  0
  -64.1511   73.2528    8.1792 O   0  0  0  0  0  0  0  0  0  0  0  0
  -62.9675   71.5900    9.7397 C   0  0  0  0  0  0  0  0  0  0  0  0
  -63.3086   70.5620    8.8853 C   0  0  0  0  0  0  0  0  0  0  0  0
  -62.9018   69.3119    9.1665 N   0  0  0  0  0  0  0  0  0  0  0  0
  -63.1945   68.1562    8.3519 C   0  0  0  0  0  0  0  0  0  0  0  0
  -62.2520   67.7875    7.2323 C   0  0  0  0  0  0  0  0  0  0  0  0
  -63.5336   68.4534    6.9101 C   0  0  0  0  0  0  0  0  0  0  0  0
  -62.1650   69.0581   10.2752 C   0  0  0  0  0  0  0  0  0  0  0  0
  -61.7324   67.7945   10.5940 C   0  0  0  0  0  0  0  0  0  0  0  0
  -60.9845   67.5318   11.7176 C   0  0  0  0  0  0  0  0  0  0  0  0
  -60.5270   66.2277   12.0643 N   0  0  0  0  0  0  0  0  0  0  0  0
  -59.5575   65.4973   11.2896 C   0  0  0  0  0  0  0  0  0  0  0  0
  -58.5216   64.9724   12.2344 C   0  0  0  0  0  0  0  0  0  0  0  0
  -59.0129   64.2322   13.3338 N   0  0  0  0  0  0  0  0  0  0  0  0
  -60.3285   64.4669   13.7957 C   0  0  0  0  0  0  0  0  0  0  0  0
  -61.0586   65.6179   13.2390 C   0  0  0  0  0  0  0  0  0  0  0  0
  -60.6544   68.5763   12.5593 C   0  0  0  0  0  0  0  0  0  0  0  0
  -59.9225   68.3955   13.6817 F   0  0  0  0  0  0  0  0  0  0  0  0
  -61.0667   69.8615   12.2796 C   0  0  0  0  0  0  0  0  0  0  0  0
  -61.8248   70.0757   11.1250 C   0  0  0  0  0  0  0  0  0  0  0  0
  -62.2200   71.3804   10.8787 C   0  0  0  0  0  0  0  0  0  0  0  0
  -61.9485   72.3764   11.6117 O   0  0  0  0  0  0  0  0  0  0  0  0
  1  2  2  0
  2  3  1  0
  2  4  1  0
  4  5  2  0
  5  6  1  0
  6  7  1  0
  7  8  1  0
  8  9  1  0
  6 10  1  0
 10 11  2  0
 11 12  1  0
 12 13  1  0
 13 14  1  0
 14 15  1  0
 15 16  1  0
 16 17  1  0
 17 18  1  0
 12 19  2  0
 19 20  1  0
 19 21  1  0
 21 22  2  0
 22 23  1  0
 23 24  2  0
 23  4  1  0
  9  7  1  0
 22 10  1  0
 18 13  1  0
M  END
$$$$
