
     RDKit          3D

 24 27  0  0  0  0  0  0  0  0999 V2000
  -62.3051   66.7800   13.5529 O   0  0  0  0  0  0  0  0  0  0  0  0
  -63.1201   66.8110   14.5345 C   0  0  0  0  0  0  0  0  0  0  0  0
  -62.3270   66.6057   15.6475 O   0  0  0  0  0  0  0  0  0  0  0  0
  -64.5602   67.0201   14.4466 C   0  0  0  0  0  0  0  0  0  0  0  0
  -64.9969   67.3969   13.1934 C   0  0  0  0  0  0  0  0  0  0  0  0
  -66.3078   67.6179   12.9937 N   0  0  0  0  0  0  0  0  0  0  0  0
  -66.8850   68.0153   11.7312 C   0  0  0  0  0  0  0  0  0  0  0  0
  -66.6765   67.1406   10.5191 C   0  0  0  0  0  0  0  0  0  0  0  0
  -65.8904   68.3868   10.6566 C   0  0  0  0  0  0  0  0  0  0  0  0
  -67.1951   67.4737   14.0078 C   0  0  0  0  0  0  0  0  0  0  0  0
  -68.5406   67.6908   13.8405 C   0  0  0  0  0  0  0  0  0  0  0  0
  -69.4449   67.5459   14.8662 C   0  0  0  0  0  0  0  0  0  0  0  0
  -70.8440   67.7668   14.7114 N   0  0  0  0  0  0  0  0  0  0  0  0
  -71.7887   66.7098   14.4587 C   0  0  0  0  0  0  0  0  0  0  0  0
  -72.9295   66.8809   15.4129 C   0  0  0  0  0  0  0  0  0  0  0  0
  -73.5308   68.1600   15.4270 N   0  0  0  0  0  0  0  0  0  0  0  0
  -72.7745   69.2865   15.0294 C   0  0  0  0  0  0  0  0  0  0  0  0
  -71.3297   69.1040   14.8124 C   0  0  0  0  0  0  0  0  0  0  0  0
  -68.9856   67.1678   16.1130 C   0  0  0  0  0  0  0  0  0  0  0  0
  -69.8141   67.0053   17.1691 F   0  0  0  0  0  0  0  0  0  0  0  0
  -67.6433   66.9390   16.3279 C   0  0  0  0  0  0  0  0  0  0  0  0
  -66.7652   67.1000   15.2524 C   0  0  0  0  0  0  0  0  0  0  0  0
  -65.4249   66.8609   15.5081 C   0  0  0  0  0  0  0  0  0  0  0  0
  -64.9457   66.5129   16.6273 O   0  0  0  0  0  0  0  0  0  0  0  0
  1  2  2  0
  2  3  1  0
  2  4  1  0
  4  5  2  0
  5  6  1  0
  6  7  1  0
  7  8  1  0
  8  9  1  0
  6 10  1  0
 10 11  2  0
 11 12  1  0
 12 13  1  0
 13 14  1  0
 14 15  1  0
 15 16  1  0
 16 17  1  0
 17 18  1  0
 12 19  2  0
 19 20  1  0
 19 21  1  0
 21 22  2  0
 22 23  1  0
 23 24  2  0
 23  4  1  0
  9  7  1  0
 22 10  1  0
 18 13  1  0
M  END
$$$$
