
     RDKit          3D

 24 27  0  0  0  0  0  0  0  0999 V2000
  -46.5995   54.1798  -10.3668 O   0  0  0  0  0  0  0  0  0  0  0  0
  -45.7558   55.0095  -10.8450 C   0  0  0  0  0  0  0  0  0  0  0  0
  -45.0613   54.2855  -11.7955 O   0  0  0  0  0  0  0  0  0  0  0  0
  -45.6005   56.4020  -10.4424 C   0  0  0  0  0  0  0  0  0  0  0  0
  -44.6120   57.0773  -11.1280 C   0  0  0  0  0  0  0  0  0  0  0  0
  -44.3787   58.3696  -10.8403 N   0  0  0  0  0  0  0  0  0  0  0  0
  -43.3745   59.1808  -11.4872 C   0  0  0  0  0  0  0  0  0  0  0  0
  -43.0053   58.8897  -12.9213 C   0  0  0  0  0  0  0  0  0  0  0  0
  -42.0930   58.4618  -11.8376 C   0  0  0  0  0  0  0  0  0  0  0  0
  -45.1029   59.0072   -9.8889 C   0  0  0  0  0  0  0  0  0  0  0  0
  -44.8925   60.3259   -9.5688 C   0  0  0  0  0  0  0  0  0  0  0  0
  -45.6246   60.9773   -8.6043 C   0  0  0  0  0  0  0  0  0  0  0  0
  -45.4203   62.3446   -8.2589 N   0  0  0  0  0  0  0  0  0  0  0  0
  -46.4429   63.3516   -8.3766 C   0  0  0  0  0  0  0  0  0  0  0  0
  -46.4763   64.1190   -7.0916 C   0  0  0  0  0  0  0  0  0  0  0  0
  -45.2378   64.6451   -6.6589 N   0  0  0  0  0  0  0  0  0  0  0  0
  -44.0373   64.0235   -7.0733 C   0  0  0  0  0  0  0  0  0  0  0  0
  -44.1367   62.7316   -7.7724 C   0  0  0  0  0  0  0  0  0  0  0  0
  -46.6095   60.2818   -7.9302 C   0  0  0  0  0  0  0  0  0  0  0  0
  -47.3696   60.8548   -6.9698 F   0  0  0  0  0  0  0  0  0  0  0  0
  -46.8563   58.9565   -8.2178 C   0  0  0  0  0  0  0  0  0  0  0  0
  -46.0844   58.3403   -9.2068 C   0  0  0  0  0  0  0  0  0  0  0  0
  -46.3625   57.0084   -9.4669 C   0  0  0  0  0  0  0  0  0  0  0  0
  -47.2507   56.3202   -8.8831 O   0  0  0  0  0  0  0  0  0  0  0  0
  1  2  2  0
  2  3  1  0
  2  4  1  0
  4  5  2  0
  5  6  1  0
  6  7  1  0
  7  8  1  0
  8  9  1  0
  6 10  1  0
 10 11  2  0
 11 12  1  0
 12 13  1  0
 13 14  1  0
 14 15  1  0
 15 16  1  0
 16 17  1  0
 17 18  1  0
 12 19  2  0
 19 20  1  0
 19 21  1  0
 21 22  2  0
 22 23  1  0
 23 24  2  0
 23  4  1  0
  9  7  1  0
 22 10  1  0
 18 13  1  0
M  END
$$$$
