
     RDKit          3D

 24 27  0  0  0  0  0  0  0  0999 V2000
  -48.6017   53.2261   -8.9981 O   0  0  0  0  0  0  0  0  0  0  0  0
  -48.5758   54.0943   -8.0630 C   0  0  0  0  0  0  0  0  0  0  0  0
  -49.3987   53.5708   -7.0838 O   0  0  0  0  0  0  0  0  0  0  0  0
  -47.8272   55.3451   -8.0753 C   0  0  0  0  0  0  0  0  0  0  0  0
  -48.0299   56.1313   -6.9598 C   0  0  0  0  0  0  0  0  0  0  0  0
  -47.3903   57.3096   -6.8618 N   0  0  0  0  0  0  0  0  0  0  0  0
  -47.5204   58.2179   -5.7469 C   0  0  0  0  0  0  0  0  0  0  0  0
  -46.6465   58.0217   -4.5322 C   0  0  0  0  0  0  0  0  0  0  0  0
  -48.0658   57.6065   -4.4779 C   0  0  0  0  0  0  0  0  0  0  0  0
  -46.5548   57.7261   -7.8441 C   0  0  0  0  0  0  0  0  0  0  0  0
  -45.8851   58.9230   -7.7778 C   0  0  0  0  0  0  0  0  0  0  0  0
  -45.0363   59.3500   -8.7718 C   0  0  0  0  0  0  0  0  0  0  0  0
  -44.3333   60.5883   -8.7203 N   0  0  0  0  0  0  0  0  0  0  0  0
  -44.4972   61.5477   -7.6590 C   0  0  0  0  0  0  0  0  0  0  0  0
  -43.1322   61.9537   -7.1973 C   0  0  0  0  0  0  0  0  0  0  0  0
  -42.2508   62.4011   -8.2076 N   0  0  0  0  0  0  0  0  0  0  0  0
  -42.4384   61.9590   -9.5376 C   0  0  0  0  0  0  0  0  0  0  0  0
  -43.4219   60.8894   -9.7752 C   0  0  0  0  0  0  0  0  0  0  0  0
  -44.8480   58.5469   -9.8798 C   0  0  0  0  0  0  0  0  0  0  0  0
  -44.0295   58.8995  -10.8967 F   0  0  0  0  0  0  0  0  0  0  0  0
  -45.4992   57.3369   -9.9897 C   0  0  0  0  0  0  0  0  0  0  0  0
  -46.3514   56.9486   -8.9520 C   0  0  0  0  0  0  0  0  0  0  0  0
  -46.9872   55.7267   -9.0994 C   0  0  0  0  0  0  0  0  0  0  0  0
  -46.8544   54.9490  -10.0897 O   0  0  0  0  0  0  0  0  0  0  0  0
  1  2  2  0
  2  3  1  0
  2  4  1  0
  4  5  2  0
  5  6  1  0
  6  7  1  0
  7  8  1  0
  8  9  1  0
  6 10  1  0
 10 11  2  0
 11 12  1  0
 12 13  1  0
 13 14  1  0
 14 15  1  0
 15 16  1  0
 16 17  1  0
 17 18  1  0
 12 19  2  0
 19 20  1  0
 19 21  1  0
 21 22  2  0
 22 23  1  0
 23 24  2  0
 23  4  1  0
  9  7  1  0
 22 10  1  0
 18 13  1  0
M  END
$$$$
