
     RDKit          3D

 24 27  0  0  0  0  0  0  0  0999 V2000
  -46.9625   57.2572   -9.3675 O   0  0  0  0  0  0  0  0  0  0  0  0
  -46.3821   57.8944   -8.4263 C   0  0  0  0  0  0  0  0  0  0  0  0
  -47.1306   57.6044   -7.3013 O   0  0  0  0  0  0  0  0  0  0  0  0
  -45.1948   58.7293   -8.5615 C   0  0  0  0  0  0  0  0  0  0  0  0
  -44.8063   58.9450   -9.8676 C   0  0  0  0  0  0  0  0  0  0  0  0
  -43.7227   59.7014  -10.1141 N   0  0  0  0  0  0  0  0  0  0  0  0
  -43.2184   59.9984  -11.4341 C   0  0  0  0  0  0  0  0  0  0  0  0
  -44.1008   59.7473  -12.6324 C   0  0  0  0  0  0  0  0  0  0  0  0
  -43.0063   58.7991  -12.3277 C   0  0  0  0  0  0  0  0  0  0  0  0
  -43.0159   60.2487   -9.0956 C   0  0  0  0  0  0  0  0  0  0  0  0
  -41.9045   61.0263   -9.3097 C   0  0  0  0  0  0  0  0  0  0  0  0
  -41.1840   61.5838   -8.2798 C   0  0  0  0  0  0  0  0  0  0  0  0
  -40.0289   62.3929   -8.4828 N   0  0  0  0  0  0  0  0  0  0  0  0
  -39.8618   63.6958   -7.8927 C   0  0  0  0  0  0  0  0  0  0  0  0
  -38.4999   63.7437   -7.2728 C   0  0  0  0  0  0  0  0  0  0  0  0
  -37.4271   63.3857   -8.1207 N   0  0  0  0  0  0  0  0  0  0  0  0
  -37.6675   62.5289   -9.2196 C   0  0  0  0  0  0  0  0  0  0  0  0
  -38.9874   61.8832   -9.3132 C   0  0  0  0  0  0  0  0  0  0  0  0
  -41.5910   61.3548   -6.9796 C   0  0  0  0  0  0  0  0  0  0  0  0
  -40.9335   61.8692   -5.9159 F   0  0  0  0  0  0  0  0  0  0  0  0
  -42.7007   60.5806   -6.7165 C   0  0  0  0  0  0  0  0  0  0  0  0
  -43.3985   60.0368   -7.7986 C   0  0  0  0  0  0  0  0  0  0  0  0
  -44.5076   59.2650   -7.4933 C   0  0  0  0  0  0  0  0  0  0  0  0
  -44.9279   59.0205   -6.3242 O   0  0  0  0  0  0  0  0  0  0  0  0
  1  2  2  0
  2  3  1  0
  2  4  1  0
  4  5  2  0
  5  6  1  0
  6  7  1  0
  7  8  1  0
  8  9  1  0
  6 10  1  0
 10 11  2  0
 11 12  1  0
 12 13  1  0
 13 14  1  0
 14 15  1  0
 15 16  1  0
 16 17  1  0
 17 18  1  0
 12 19  2  0
 19 20  1  0
 19 21  1  0
 21 22  2  0
 22 23  1  0
 23 24  2  0
 23  4  1  0
  9  7  1  0
 22 10  1  0
 18 13  1  0
M  END
$$$$
