
     RDKit          3D

 24 27  0  0  0  0  0  0  0  0999 V2000
  -61.7359   65.4188  -26.7478 O   0  0  0  0  0  0  0  0  0  0  0  0
  -60.4759   65.4359  -26.5453 C   0  0  0  0  0  0  0  0  0  0  0  0
  -60.3098   64.7624  -25.3500 O   0  0  0  0  0  0  0  0  0  0  0  0
  -59.4763   66.0449  -27.4142 C   0  0  0  0  0  0  0  0  0  0  0  0
  -58.1784   65.8848  -26.9747 C   0  0  0  0  0  0  0  0  0  0  0  0
  -57.1714   66.4055  -27.6971 N   0  0  0  0  0  0  0  0  0  0  0  0
  -55.7755   66.3046  -27.3418 C   0  0  0  0  0  0  0  0  0  0  0  0
  -55.3907   65.6002  -26.0638 C   0  0  0  0  0  0  0  0  0  0  0  0
  -55.3662   67.0790  -26.1111 C   0  0  0  0  0  0  0  0  0  0  0  0
  -57.4218   67.0811  -28.8448 C   0  0  0  0  0  0  0  0  0  0  0  0
  -56.4187   67.6262  -29.6079 C   0  0  0  0  0  0  0  0  0  0  0  0
  -56.6675   68.3125  -30.7732 C   0  0  0  0  0  0  0  0  0  0  0  0
  -55.6400   68.8847  -31.5776 N   0  0  0  0  0  0  0  0  0  0  0  0
  -54.4944   68.1457  -32.0414 C   0  0  0  0  0  0  0  0  0  0  0  0
  -54.3436   68.4119  -33.5069 C   0  0  0  0  0  0  0  0  0  0  0  0
  -54.3042   69.7740  -33.8820 N   0  0  0  0  0  0  0  0  0  0  0  0
  -54.9214   70.7398  -33.0539 C   0  0  0  0  0  0  0  0  0  0  0  0
  -55.7554   70.2593  -31.9397 C   0  0  0  0  0  0  0  0  0  0  0  0
  -57.9747   68.4609  -31.1946 C   0  0  0  0  0  0  0  0  0  0  0  0
  -58.2971   69.1225  -32.3290 F   0  0  0  0  0  0  0  0  0  0  0  0
  -59.0142   67.9307  -30.4609 C   0  0  0  0  0  0  0  0  0  0  0  0
  -58.7082   67.2419  -29.2838 C   0  0  0  0  0  0  0  0  0  0  0  0
  -59.7796   66.7240  -28.5748 C   0  0  0  0  0  0  0  0  0  0  0  0
  -60.9961   66.8277  -28.9104 O   0  0  0  0  0  0  0  0  0  0  0  0
  1  2  2  0
  2  3  1  0
  2  4  1  0
  4  5  2  0
  5  6  1  0
  6  7  1  0
  7  8  1  0
  8  9  1  0
  6 10  1  0
 10 11  2  0
 11 12  1  0
 12 13  1  0
 13 14  1  0
 14 15  1  0
 15 16  1  0
 16 17  1  0
 17 18  1  0
 12 19  2  0
 19 20  1  0
 19 21  1  0
 21 22  2  0
 22 23  1  0
 23 24  2  0
 23  4  1  0
  9  7  1  0
 22 10  1  0
 18 13  1  0
M  END
$$$$
