
     RDKit          3D

 24 27  0  0  0  0  0  0  0  0999 V2000
  -46.4671   54.5552  -10.9304 O   0  0  0  0  0  0  0  0  0  0  0  0
  -45.6505   55.4673  -11.2910 C   0  0  0  0  0  0  0  0  0  0  0  0
  -44.9396   54.9013  -12.3323 O   0  0  0  0  0  0  0  0  0  0  0  0
  -45.5342   56.7956  -10.7016 C   0  0  0  0  0  0  0  0  0  0  0  0
  -44.6041   57.6047  -11.3208 C   0  0  0  0  0  0  0  0  0  0  0  0
  -44.4109   58.8535  -10.8621 N   0  0  0  0  0  0  0  0  0  0  0  0
  -43.4689   59.7923  -11.4244 C   0  0  0  0  0  0  0  0  0  0  0  0
  -42.2677   59.2697  -12.1738 C   0  0  0  0  0  0  0  0  0  0  0  0
  -42.0952   59.7813  -10.7960 C   0  0  0  0  0  0  0  0  0  0  0  0
  -45.1186   59.3180   -9.8039 C   0  0  0  0  0  0  0  0  0  0  0  0
  -44.9478   60.5873   -9.3086 C   0  0  0  0  0  0  0  0  0  0  0  0
  -45.6634   61.0633   -8.2353 C   0  0  0  0  0  0  0  0  0  0  0  0
  -45.4998   62.3768   -7.7078 N   0  0  0  0  0  0  0  0  0  0  0  0
  -44.6056   63.3520   -8.2762 C   0  0  0  0  0  0  0  0  0  0  0  0
  -45.3630   64.6354   -8.4196 C   0  0  0  0  0  0  0  0  0  0  0  0
  -46.0084   65.1006   -7.2513 N   0  0  0  0  0  0  0  0  0  0  0  0
  -46.3805   64.1752   -6.2491 C   0  0  0  0  0  0  0  0  0  0  0  0
  -46.2619   62.7406   -6.5585 C   0  0  0  0  0  0  0  0  0  0  0  0
  -46.5897   60.2360   -7.6304 C   0  0  0  0  0  0  0  0  0  0  0  0
  -47.3303   60.6337   -6.5713 F   0  0  0  0  0  0  0  0  0  0  0  0
  -46.7951   58.9539   -8.0933 C   0  0  0  0  0  0  0  0  0  0  0  0
  -46.0422   58.5180   -9.1873 C   0  0  0  0  0  0  0  0  0  0  0  0
  -46.2774   57.2241   -9.6227 C   0  0  0  0  0  0  0  0  0  0  0  0
  -47.1112   56.4211   -9.1098 O   0  0  0  0  0  0  0  0  0  0  0  0
  1  2  2  0
  2  3  1  0
  2  4  1  0
  4  5  2  0
  5  6  1  0
  6  7  1  0
  7  8  1  0
  8  9  1  0
  6 10  1  0
 10 11  2  0
 11 12  1  0
 12 13  1  0
 13 14  1  0
 14 15  1  0
 15 16  1  0
 16 17  1  0
 17 18  1  0
 12 19  2  0
 19 20  1  0
 19 21  1  0
 21 22  2  0
 22 23  1  0
 23 24  2  0
 23  4  1  0
  9  7  1  0
 22 10  1  0
 18 13  1  0
M  END
$$$$
